/*---------------------------------------------------------------------------*\
  =========                 |
  \\      /  F ield         | OpenFOAM: The Open Source CFD Toolbox
   \\    /   O peration     | Website:  https://openfoam.org
    \\  /    A nd           | Version:  8
     \\/     M anipulation  |
\*---------------------------------------------------------------------------*/
Build  : 8
Exec   : reactingDNS
Date   : Apr 23 2021
Time   : 12:00:17
Host   : "DESKTOP-K9D327L"
PID    : 32631
I/O    : uncollated
Case   : /home/shenghui/OpenFOAM/shenghui-8/reactingDNS_OpenFOAM/tuts/2D_syngas_premixed/utilities/chemkin1DSinCircleToFoam
nProcs : 1
sigFpe : Enabling floating point exception trapping (FOAM_SIGFPE).
fileModificationChecking : Monitoring run-time modified files using timeStampMaster (fileModificationSkew 10)
allowSystemOperations : Allowing user-supplied system call operations

// * * * * * * * * * * * * * * * * * * * * * * * * * * * * * * * * * * * * * //
Create time



--> FOAM FATAL ERROR: 
cannot find file "/home/shenghui/OpenFOAM/shenghui-8/reactingDNS_OpenFOAM/tuts/2D_syngas_premixed/utilities/chemkin1DSinCircleToFoam/system/controlDict"

    From function virtual Foam::autoPtr<Foam::ISstream> Foam::fileOperations::uncollatedFileOperation::readStream(Foam::regIOobject&, const Foam::fileName&, const Foam::word&, bool) const
    in file global/fileOperations/uncollatedFileOperation/uncollatedFileOperation.C at line 538.

FOAM exiting

